
 OpenBabel03192116033D

 47 49  0  0  1  0  0  0  0  0999 V2000
   17.0630   33.3540   88.8150 C   0  0  0  0  0  0  0  0  0  0  0  0
   16.0080   33.2930   89.5940 N   0  0  0  0  0  0  0  0  0  0  0  0
   16.1520   34.0910   90.5910 N   0  0  0  0  0  0  0  0  0  0  0  0
   17.3050   34.7160   90.5060 C   0  0  0  0  0  0  0  0  0  0  0  0
   17.9260   34.2660   89.3760 N   0  0  0  0  0  0  0  0  0  0  0  0
   17.9180   30.3610   83.9750 C   0  0  0  0  0  0  0  0  0  0  0  0
   17.6930   31.1440   85.2420 C   0  0  0  0  0  0  0  0  0  0  0  0
   16.5340   31.8810   85.4000 C   0  0  0  0  0  0  0  0  0  0  0  0
   16.3220   32.6000   86.5590 C   0  0  0  0  0  0  0  0  0  0  0  0
   17.2830   32.5850   87.5710 C   0  0  0  0  0  0  0  0  0  0  0  0
   18.4530   31.8440   87.4030 C   0  0  0  0  0  0  0  0  0  0  0  0
   18.6490   31.1250   86.2420 C   0  0  0  0  0  0  0  0  0  0  0  0
   19.1500   34.6450   88.9000 N   0  0  0  0  0  0  0  0  0  0  0  0
   17.9340   35.9070   91.6410 S   0  0  0  0  0  0  0  0  0  0  0  0
   17.7220   35.0030   93.1950 C   0  0  0  0  0  0  0  0  0  0  0  0
   16.5620   35.5850   93.9610 C   0  0  0  0  0  0  0  0  0  0  0  0
   16.5570   35.5480   95.3080 N   0  0  0  0  0  0  0  0  0  0  0  0
   15.6310   36.0820   93.3640 O   0  0  0  0  0  0  0  0  0  0  0  0
   15.4270   36.1070   96.0520 C   0  0  1  0  0  0  0  0  0  0  0  0
   14.9800   35.1140   97.1250 C   0  0  0  0  0  0  0  0  0  0  0  0
   15.8460   37.3980   96.7070 C   0  0  0  0  0  0  0  0  0  0  0  0
   17.0970   37.5060   97.2860 C   0  0  0  0  0  0  0  0  0  0  0  0
   17.4830   38.6910   97.8830 C   0  0  0  0  0  0  0  0  0  0  0  0
   16.6150   39.7670   97.9100 C   0  0  0  0  0  0  0  0  0  0  0  0
   15.3630   39.6590   97.3360 C   0  0  0  0  0  0  0  0  0  0  0  0
   14.9770   38.4750   96.7340 C   0  0  0  0  0  0  0  0  0  0  0  0
   13.4040   38.3390   96.0140 Cl  0  0  0  0  0  0  0  0  0  0  0  0
   17.0812   30.4924   83.3212 H   0  0  0  0  0  0  0  0  0  0  0  0
   18.0263   29.3231   84.2116 H   0  0  0  0  0  0  0  0  0  0  0  0
   18.8063   30.7113   83.4922 H   0  0  0  0  0  0  0  0  0  0  0  0
   15.8257   31.8936   84.6496 H   0  0  0  0  0  0  0  0  0  0  0  0
   15.4551   33.1473   86.6770 H   0  0  0  0  0  0  0  0  0  0  0  0
   19.1700   31.8337   88.1452 H   0  0  0  0  0  0  0  0  0  0  0  0
   19.5112   30.5714   86.1191 H   0  0  0  0  0  0  0  0  0  0  0  0
   19.3506   34.1396   88.0370 H   0  0  0  0  0  0  0  0  0  0  0  0
   19.8660   34.4303   89.5940 H   0  0  0  0  0  0  0  0  0  0  0  0
   18.6137   35.0863   93.7805 H   0  0  0  0  0  0  0  0  0  0  0  0
   17.5286   33.9720   92.9841 H   0  0  0  0  0  0  0  0  0  0  0  0
   17.3136   35.1449   95.7920 H   0  0  0  0  0  0  0  0  0  0  0  0
   14.6161   36.2941   95.3795 H   0  0  0  0  0  0  0  0  0  0  0  0
   15.7908   34.9268   97.7976 H   0  0  0  0  0  0  0  0  0  0  0  0
   14.6827   34.1970   96.6607 H   0  0  0  0  0  0  0  0  0  0  0  0
   14.1536   35.5233   97.6677 H   0  0  0  0  0  0  0  0  0  0  0  0
   17.7428   36.7012   97.2723 H   0  0  0  0  0  0  0  0  0  0  0  0
   18.4195   38.7729   98.3089 H   0  0  0  0  0  0  0  0  0  0  0  0
   16.9024   40.6507   98.3589 H   0  0  0  0  0  0  0  0  0  0  0  0
   14.7153   40.4622   97.3564 H   0  0  0  0  0  0  0  0  0  0  0  0
  1 10  1  0  0  0  0
  1  5  1  0  0  0  0
  1  2  2  0  0  0  0
  2  3  1  0  0  0  0
  3  4  2  0  0  0  0
  4  5  1  0  0  0  0
  4 14  1  0  0  0  0
  5 13  1  0  0  0  0
  6  7  1  0  0  0  0
  6 28  1  0  0  0  0
  6 29  1  0  0  0  0
  6 30  1  0  0  0  0
  7  8  2  0  0  0  0
  7 12  1  0  0  0  0
  8  9  1  0  0  0  0
  8 31  1  0  0  0  0
  9 10  2  0  0  0  0
  9 32  1  0  0  0  0
 10 11  1  0  0  0  0
 11 12  2  0  0  0  0
 11 33  1  0  0  0  0
 12 34  1  0  0  0  0
 13 35  1  0  0  0  0
 13 36  1  0  0  0  0
 14 15  1  0  0  0  0
 15 16  1  0  0  0  0
 15 37  1  0  0  0  0
 15 38  1  0  0  0  0
 16 18  2  0  0  0  0
 16 17  1  0  0  0  0
 17 19  1  0  0  0  0
 17 39  1  0  0  0  0
 19 21  1  0  0  0  0
 19 20  1  0  0  0  0
 19 40  1  6  0  0  0
 20 41  1  0  0  0  0
 20 42  1  0  0  0  0
 20 43  1  0  0  0  0
 21 26  2  0  0  0  0
 21 22  1  0  0  0  0
 22 23  2  0  0  0  0
 22 44  1  0  0  0  0
 23 24  1  0  0  0  0
 23 45  1  0  0  0  0
 24 25  2  0  0  0  0
 24 46  1  0  0  0  0
 25 26  1  0  0  0  0
 25 47  1  0  0  0  0
 26 27  1  0  0  0  0
M  END
$$$$
