
 OpenBabel03192116033D

 47 50  0  0  1  0  0  0  0  0999 V2000
   17.1120   34.1240   91.4290 N   0  0  0  0  0  0  0  0  0  0  0  0
   15.8270   34.1030   91.8370 C   0  0  0  0  0  0  0  0  0  0  0  0
   14.9750   34.6670   91.1840 O   0  0  0  0  0  0  0  0  0  0  0  0
   18.7230   35.6810   90.4480 C   0  0  0  0  0  0  0  0  0  0  0  0
   17.4780   34.8280   90.1970 C   0  0  1  0  0  0  0  0  0  0  0  0
   17.7670   33.8230   89.1110 C   0  0  0  0  0  0  0  0  0  0  0  0
   18.9860   33.1470   89.1090 C   0  0  0  0  0  0  0  0  0  0  0  0
   19.2790   32.2340   88.1430 C   0  0  0  0  0  0  0  0  0  0  0  0
   18.3400   31.9660   87.1320 C   0  0  0  0  0  0  0  0  0  0  0  0
   18.6080   31.0310   86.1180 C   0  0  0  0  0  0  0  0  0  0  0  0
   17.6740   30.7970   85.1550 C   0  0  0  0  0  0  0  0  0  0  0  0
   16.4580   31.4780   85.1540 C   0  0  0  0  0  0  0  0  0  0  0  0
   16.1630   32.3860   86.1240 C   0  0  0  0  0  0  0  0  0  0  0  0
   17.1010   32.6540   87.1350 C   0  0  0  0  0  0  0  0  0  0  0  0
   16.8340   33.5900   88.1490 C   0  0  0  0  0  0  0  0  0  0  0  0
   15.4510   33.3790   93.1040 C   0  0  0  0  0  0  0  0  0  0  0  0
   16.8070   33.5010   94.2960 S   0  0  0  0  0  0  0  0  0  0  0  0
   16.0940   34.6180   95.4570 C   0  0  0  0  0  0  0  0  0  0  0  0
   15.2460   34.3120   96.4110 N   0  0  0  0  0  0  0  0  0  0  0  0
   14.9280   35.3650   97.0770 N   0  0  0  0  0  0  0  0  0  0  0  0
   15.5510   36.4130   96.5820 C   0  0  0  0  0  0  0  0  0  0  0  0
   16.3170   35.9650   95.5280 N   0  0  0  0  0  0  0  0  0  0  0  0
   15.4490   37.7990   97.0630 C   0  0  0  0  0  0  0  0  0  0  0  0
   14.3450   38.6110   97.1320 C   0  0  0  0  0  0  0  0  0  0  0  0
   14.4930   39.8870   97.6290 C   0  0  0  0  0  0  0  0  0  0  0  0
   15.7240   40.3060   98.0220 C   0  0  0  0  0  0  0  0  0  0  0  0
   16.7300   38.8660   97.7000 S   0  0  0  0  0  0  0  0  0  0  0  0
   17.1300   36.7110   94.7230 N   0  0  0  0  0  0  0  0  0  0  0  0
   17.8043   33.6664   91.9587 H   0  0  0  0  0  0  0  0  0  0  0  0
   18.5173   36.3941   91.2188 H   0  0  0  0  0  0  0  0  0  0  0  0
   18.9903   36.1952   89.5485 H   0  0  0  0  0  0  0  0  0  0  0  0
   19.5321   35.0503   90.7522 H   0  0  0  0  0  0  0  0  0  0  0  0
   16.6692   35.4589   89.8926 H   0  0  0  0  0  0  0  0  0  0  0  0
   19.6765   33.3416   89.8509 H   0  0  0  0  0  0  0  0  0  0  0  0
   20.1857   31.7412   88.1528 H   0  0  0  0  0  0  0  0  0  0  0  0
   19.5071   30.5247   86.1031 H   0  0  0  0  0  0  0  0  0  0  0  0
   17.8696   30.1050   84.4148 H   0  0  0  0  0  0  0  0  0  0  0  0
   15.7712   31.2910   84.4068 H   0  0  0  0  0  0  0  0  0  0  0  0
   15.2544   32.8754   86.1169 H   0  0  0  0  0  0  0  0  0  0  0  0
   15.9355   34.0974   88.1636 H   0  0  0  0  0  0  0  0  0  0  0  0
   15.2621   32.3492   92.8833 H   0  0  0  0  0  0  0  0  0  0  0  0
   14.5706   33.8228   93.5197 H   0  0  0  0  0  0  0  0  0  0  0  0
   13.4222   38.2724   96.8178 H   0  0  0  0  0  0  0  0  0  0  0  0
   13.6788   40.5169   97.7019 H   0  0  0  0  0  0  0  0  0  0  0  0
   16.0054   41.2210   98.4075 H   0  0  0  0  0  0  0  0  0  0  0  0
   17.5693   36.1060   94.0292 H   0  0  0  0  0  0  0  0  0  0  0  0
   17.8509   37.1586   95.2890 H   0  0  0  0  0  0  0  0  0  0  0  0
  1  5  1  0  0  0  0
  1  2  1  0  0  0  0
  1 29  1  0  0  0  0
  2  3  2  0  0  0  0
  2 16  1  0  0  0  0
  4  5  1  0  0  0  0
  4 30  1  0  0  0  0
  4 31  1  0  0  0  0
  4 32  1  0  0  0  0
  5  6  1  0  0  0  0
  5 33  1  6  0  0  0
  6 15  2  0  0  0  0
  6  7  1  0  0  0  0
  7  8  2  0  0  0  0
  7 34  1  0  0  0  0
  8  9  1  0  0  0  0
  8 35  1  0  0  0  0
  9 10  2  0  0  0  0
  9 14  1  0  0  0  0
 10 11  1  0  0  0  0
 10 36  1  0  0  0  0
 11 12  2  0  0  0  0
 11 37  1  0  0  0  0
 12 13  1  0  0  0  0
 12 38  1  0  0  0  0
 13 14  2  0  0  0  0
 13 39  1  0  0  0  0
 14 15  1  0  0  0  0
 15 40  1  0  0  0  0
 16 17  1  0  0  0  0
 16 41  1  0  0  0  0
 16 42  1  0  0  0  0
 17 18  1  0  0  0  0
 18 22  1  0  0  0  0
 18 19  2  0  0  0  0
 19 20  1  0  0  0  0
 20 21  2  0  0  0  0
 21 22  1  0  0  0  0
 21 23  1  0  0  0  0
 22 28  1  0  0  0  0
 23 24  2  0  0  0  0
 23 27  1  0  0  0  0
 24 25  1  0  0  0  0
 24 43  1  0  0  0  0
 25 26  2  0  0  0  0
 25 44  1  0  0  0  0
 26 27  1  0  0  0  0
 26 45  1  0  0  0  0
 28 46  1  0  0  0  0
 28 47  1  0  0  0  0
M  END
$$$$
