
 OpenBabel03192116033D

 58 62  0  0  0  0  0  0  0  0999 V2000
   16.1430   34.1120   92.1850 C   0  0  0  0  0  0  0  0  0  0  0  0
   15.6330   33.7970   90.9450 C   0  0  0  0  0  0  0  0  0  0  0  0
   16.4460   33.9290   89.8120 C   0  0  0  0  0  0  0  0  0  0  0  0
   17.7800   34.3830   89.9600 C   0  0  0  0  0  0  0  0  0  0  0  0
   18.5770   34.5070   88.7940 C   0  0  0  0  0  0  0  0  0  0  0  0
   18.0310   34.1890   87.6230 N   0  0  0  0  0  0  0  0  0  0  0  0
   16.7790   33.7690   87.5370 C   0  0  0  0  0  0  0  0  0  0  0  0
   18.2730   34.6960   91.2310 C   0  0  0  0  0  0  0  0  0  0  0  0
   15.9970   33.6360   88.5820 N   0  0  0  0  0  0  0  0  0  0  0  0
   17.4630   34.5660   92.3230 C   0  0  0  0  0  0  0  0  0  0  0  0
   19.9730   34.9740   88.8760 C   0  0  0  0  0  0  0  0  0  0  0  0
   20.4550   35.9610   89.6790 C   0  0  0  0  0  0  0  0  0  0  0  0
   21.7910   36.1080   89.4750 N   0  0  0  0  0  0  0  0  0  0  0  0
   22.2330   35.2120   88.5240 C   0  0  0  0  0  0  0  0  0  0  0  0
   23.4800   34.9550   87.9650 C   0  0  0  0  0  0  0  0  0  0  0  0
   23.6180   33.9600   87.0190 C   0  0  0  0  0  0  0  0  0  0  0  0
   24.8320   33.7110   86.4820 F   0  0  0  0  0  0  0  0  0  0  0  0
   22.5170   33.2180   86.6070 C   0  0  0  0  0  0  0  0  0  0  0  0
   22.7100   31.9780   85.4080 Cl  0  0  0  0  0  0  0  0  0  0  0  0
   21.2720   33.4630   87.1470 C   0  0  0  0  0  0  0  0  0  0  0  0
   21.1220   34.4590   88.1100 C   0  0  0  0  0  0  0  0  0  0  0  0
   15.5920   32.8540   94.1250 C   0  0  0  0  0  0  0  0  0  0  0  0
   15.3570   33.9860   93.2860 O   0  0  0  0  0  0  0  0  0  0  0  0
   17.9420   34.8760   93.5570 O   0  0  0  0  0  0  0  0  0  0  0  0
   17.5860   36.1540   94.0880 C   0  0  0  0  0  0  0  0  0  0  0  0
   17.2760   36.0170   95.5810 C   0  0  0  0  0  0  0  0  0  0  0  0
   15.7900   36.2890   95.8200 C   0  0  0  0  0  0  0  0  0  0  0  0
   15.6080   37.6850   96.2360 N   0  3  0  0  0  0  0  0  0  0  0  0
   16.5130   38.0270   97.3430 C   0  0  0  0  0  0  0  0  0  0  0  0
   16.3330   39.5040   97.7040 C   0  0  0  0  0  0  0  0  0  0  0  0
   14.9620   39.7470   98.0320 O   0  0  0  0  0  0  0  0  0  0  0  0
   14.0530   39.4250   96.9750 C   0  0  0  0  0  0  0  0  0  0  0  0
   14.2090   37.9480   96.6070 C   0  0  0  0  0  0  0  0  0  0  0  0
   14.6599   33.4664   90.8514 H   0  0  0  0  0  0  0  0  0  0  0  0
   16.4006   33.5355   86.6057 H   0  0  0  0  0  0  0  0  0  0  0  0
   19.2451   35.0239   91.3432 H   0  0  0  0  0  0  0  0  0  0  0  0
   19.8913   36.5146   90.3429 H   0  0  0  0  0  0  0  0  0  0  0  0
   22.3621   36.7613   89.9401 H   0  0  0  0  0  0  0  0  0  0  0  0
   24.3011   35.5076   88.2572 H   0  0  0  0  0  0  0  0  0  0  0  0
   20.4556   32.9116   86.8395 H   0  0  0  0  0  0  0  0  0  0  0  0
   14.9109   32.8740   94.9500 H   0  0  0  0  0  0  0  0  0  0  0  0
   16.5969   32.8840   94.4913 H   0  0  0  0  0  0  0  0  0  0  0  0
   15.4442   31.9561   93.5622 H   0  0  0  0  0  0  0  0  0  0  0  0
   16.7222   36.5248   93.5768 H   0  0  0  0  0  0  0  0  0  0  0  0
   18.3996   36.8358   93.9534 H   0  0  0  0  0  0  0  0  0  0  0  0
   17.8611   36.7226   96.1330 H   0  0  0  0  0  0  0  0  0  0  0  0
   17.5138   35.0254   95.9052 H   0  0  0  0  0  0  0  0  0  0  0  0
   15.4274   35.6380   96.5879 H   0  0  0  0  0  0  0  0  0  0  0  0
   15.2456   36.1127   94.9159 H   0  0  0  0  0  0  0  0  0  0  0  0
   15.8410   38.2796   95.4406 H   0  0  0  0  0  0  0  0  0  0  0  0
   17.5255   37.8527   97.0441 H   0  0  0  0  0  0  0  0  0  0  0  0
   16.2854   37.4192   98.1937 H   0  0  0  0  0  0  0  0  0  0  0  0
   16.6143   40.1126   96.8701 H   0  0  0  0  0  0  0  0  0  0  0  0
   16.9506   39.7455   98.5437 H   0  0  0  0  0  0  0  0  0  0  0  0
   14.2694   40.0312   96.1203 H   0  0  0  0  0  0  0  0  0  0  0  0
   13.0493   39.6105   97.2961 H   0  0  0  0  0  0  0  0  0  0  0  0
   13.9413   37.3403   97.4460 H   0  0  0  0  0  0  0  0  0  0  0  0
   13.5692   37.7145   95.7818 H   0  0  0  0  0  0  0  0  0  0  0  0
  1  2  2  0  0  0  0
  1 10  1  0  0  0  0
  1 23  1  0  0  0  0
  2  3  1  0  0  0  0
  2 34  1  0  0  0  0
  3  9  2  0  0  0  0
  3  4  1  0  0  0  0
  4  5  2  0  0  0  0
  4  8  1  0  0  0  0
  5  6  1  0  0  0  0
  5 11  1  0  0  0  0
  6  7  2  0  0  0  0
  7  9  1  0  0  0  0
  7 35  1  0  0  0  0
  8 10  2  0  0  0  0
  8 36  1  0  0  0  0
 10 24  1  0  0  0  0
 11 21  1  0  0  0  0
 11 12  2  0  0  0  0
 12 13  1  0  0  0  0
 12 37  1  0  0  0  0
 13 14  1  0  0  0  0
 13 38  1  0  0  0  0
 14 15  2  0  0  0  0
 14 21  1  0  0  0  0
 15 16  1  0  0  0  0
 15 39  1  0  0  0  0
 16 17  1  0  0  0  0
 16 18  2  0  0  0  0
 18 19  1  0  0  0  0
 18 20  1  0  0  0  0
 20 21  2  0  0  0  0
 20 40  1  0  0  0  0
 22 23  1  0  0  0  0
 22 41  1  0  0  0  0
 22 42  1  0  0  0  0
 22 43  1  0  0  0  0
 24 25  1  0  0  0  0
 25 26  1  0  0  0  0
 25 44  1  0  0  0  0
 25 45  1  0  0  0  0
 26 27  1  0  0  0  0
 26 46  1  0  0  0  0
 26 47  1  0  0  0  0
 27 28  1  0  0  0  0
 27 48  1  0  0  0  0
 27 49  1  0  0  0  0
 28 33  1  0  0  0  0
 28 29  1  0  0  0  0
 28 50  1  0  0  0  0
 29 30  1  0  0  0  0
 29 51  1  0  0  0  0
 29 52  1  0  0  0  0
 30 31  1  0  0  0  0
 30 53  1  0  0  0  0
 30 54  1  0  0  0  0
 31 32  1  0  0  0  0
 32 33  1  0  0  0  0
 32 55  1  0  0  0  0
 32 56  1  0  0  0  0
 33 57  1  0  0  0  0
 33 58  1  0  0  0  0
M  CHG  1  28   1
M  END
$$$$
