
 OpenBabel03192116033D

 62 63  0  0  0  0  0  0  0  0999 V2000
   14.8630   31.5860   85.4440 C   0  0  0  0  0  0  0  0  0  0  0  0
   16.3910   31.5010   85.4570 C   0  0  0  0  0  0  0  0  0  0  0  0
   16.8920   31.1340   84.0580 C   0  0  0  0  0  0  0  0  0  0  0  0
   17.9680   32.1330   83.6260 C   0  0  0  0  0  0  0  0  0  0  0  0
   18.5080   32.8100   84.8080 N   0  0  0  0  0  0  0  0  0  0  0  0
   19.7540   32.5270   85.2360 C   0  0  0  0  0  0  0  0  0  0  0  0
   20.4320   31.7100   84.6410 O   0  0  0  0  0  0  0  0  0  0  0  0
   20.2960   33.2070   86.4230 C   0  0  0  0  0  0  0  0  0  0  0  0
   19.7140   33.0090   87.6570 C   0  0  0  0  0  0  0  0  0  0  0  0
   20.1530   33.7970   88.8090 C   0  0  0  0  0  0  0  0  0  0  0  0
   19.7120   35.1200   88.9660 C   0  0  0  0  0  0  0  0  0  0  0  0
   20.1300   35.8580   90.0540 C   0  0  0  0  0  0  0  0  0  0  0  0
   20.9900   35.2890   90.9950 C   0  0  0  0  0  0  0  0  0  0  0  0
   21.4280   33.9790   90.8410 C   0  0  0  0  0  0  0  0  0  0  0  0
   21.0120   33.2330   89.7610 C   0  0  0  0  0  0  0  0  0  0  0  0
   21.4000   36.0180   92.0640 O   0  0  0  0  0  0  0  0  0  0  0  0
   19.7040   37.1400   90.2090 O   0  0  0  0  0  0  0  0  0  0  0  0
   21.4290   34.0730   86.2980 C   0  0  0  0  0  0  0  0  0  0  0  0
   22.3280   34.7610   86.1980 N   0  0  0  0  0  0  0  0  0  0  0  0
   14.3990   32.5930   86.4980 C   0  0  0  0  0  0  0  0  0  0  0  0
   15.5360   33.5700   86.8050 C   0  0  0  0  0  0  0  0  0  0  0  0
   16.1430   33.5180   89.1640 C   0  0  0  0  0  0  0  0  0  0  0  0
   15.4010   34.0600   88.1790 N   0  0  0  0  0  0  0  0  0  0  0  0
   16.9260   32.6200   88.9130 O   0  0  0  0  0  0  0  0  0  0  0  0
   17.1050   34.0310   91.3790 C   0  0  0  0  0  0  0  0  0  0  0  0
   16.0080   34.0110   90.5440 C   0  0  0  0  0  0  0  0  0  0  0  0
   16.4030   33.4490   93.6900 C   0  0  0  0  0  0  0  0  0  0  0  0
   16.9420   34.3810   92.7910 C   0  0  0  0  0  0  0  0  0  0  0  0
   17.3240   35.6500   93.2510 C   0  0  0  0  0  0  0  0  0  0  0  0
   17.1680   35.9730   94.5820 C   0  0  0  0  0  0  0  0  0  0  0  0
   16.6320   35.0390   95.4700 C   0  0  0  0  0  0  0  0  0  0  0  0
   16.2530   33.7810   95.0170 C   0  0  0  0  0  0  0  0  0  0  0  0
   16.4800   35.3600   96.7810 O   0  0  0  0  0  0  0  0  0  0  0  0
   17.5390   37.2020   95.0320 O   0  0  0  0  0  0  0  0  0  0  0  0
   14.7370   34.4690   91.0200 C   0  0  0  0  0  0  0  0  0  0  0  0
   13.7300   34.8330   91.3960 N   0  0  0  0  0  0  0  0  0  0  0  0
   14.4504   30.6236   85.6642 H   0  0  0  0  0  0  0  0  0  0  0  0
   14.5318   31.9035   84.4774 H   0  0  0  0  0  0  0  0  0  0  0  0
   16.7009   30.7516   86.1551 H   0  0  0  0  0  0  0  0  0  0  0  0
   16.7990   32.4470   85.7458 H   0  0  0  0  0  0  0  0  0  0  0  0
   16.0761   31.1666   83.3665 H   0  0  0  0  0  0  0  0  0  0  0  0
   17.3055   30.1473   84.0735 H   0  0  0  0  0  0  0  0  0  0  0  0
   17.5382   32.8568   82.9655 H   0  0  0  0  0  0  0  0  0  0  0  0
   18.7556   31.6133   83.1214 H   0  0  0  0  0  0  0  0  0  0  0  0
   17.9605   33.4716   85.2894 H   0  0  0  0  0  0  0  0  0  0  0  0
   18.9682   32.3045   87.7683 H   0  0  0  0  0  0  0  0  0  0  0  0
   19.0767   35.5397   88.2694 H   0  0  0  0  0  0  0  0  0  0  0  0
   22.0665   33.5644   91.5377 H   0  0  0  0  0  0  0  0  0  0  0  0
   21.3331   32.2582   89.6529 H   0  0  0  0  0  0  0  0  0  0  0  0
   21.1057   36.9013   92.1694 H   0  0  0  0  0  0  0  0  0  0  0  0
   19.1268   37.5215   89.5772 H   0  0  0  0  0  0  0  0  0  0  0  0
   14.1245   32.0728   87.3919 H   0  0  0  0  0  0  0  0  0  0  0  0
   13.5540   33.1343   86.1267 H   0  0  0  0  0  0  0  0  0  0  0  0
   15.4901   34.3955   86.1258 H   0  0  0  0  0  0  0  0  0  0  0  0
   16.4755   33.0698   86.6953 H   0  0  0  0  0  0  0  0  0  0  0  0
   14.7677   34.7858   88.3826 H   0  0  0  0  0  0  0  0  0  0  0  0
   18.0401   33.7994   91.0089 H   0  0  0  0  0  0  0  0  0  0  0  0
   16.1190   32.5146   93.3564 H   0  0  0  0  0  0  0  0  0  0  0  0
   17.7209   36.3402   92.5944 H   0  0  0  0  0  0  0  0  0  0  0  0
   15.8579   33.0938   95.6778 H   0  0  0  0  0  0  0  0  0  0  0  0
   16.7349   36.2076   97.0884 H   0  0  0  0  0  0  0  0  0  0  0  0
   17.8989   37.8298   94.4368 H   0  0  0  0  0  0  0  0  0  0  0  0
  1  2  1  0  0  0  0
  1 20  1  0  0  0  0
  1 37  1  0  0  0  0
  1 38  1  0  0  0  0
  2  3  1  0  0  0  0
  2 39  1  0  0  0  0
  2 40  1  0  0  0  0
  3  4  1  0  0  0  0
  3 41  1  0  0  0  0
  3 42  1  0  0  0  0
  4  5  1  0  0  0  0
  4 43  1  0  0  0  0
  4 44  1  0  0  0  0
  5  6  1  0  0  0  0
  5 45  1  0  0  0  0
  6  7  2  0  0  0  0
  6  8  1  0  0  0  0
  8 18  1  0  0  0  0
  8  9  2  0  0  0  0
  9 10  1  0  0  0  0
  9 46  1  0  0  0  0
 10 11  2  0  0  0  0
 10 15  1  0  0  0  0
 11 12  1  0  0  0  0
 11 47  1  0  0  0  0
 12 17  1  0  0  0  0
 12 13  2  0  0  0  0
 13 14  1  0  0  0  0
 13 16  1  0  0  0  0
 14 15  2  0  0  0  0
 14 48  1  0  0  0  0
 15 49  1  0  0  0  0
 16 50  1  0  0  0  0
 17 51  1  0  0  0  0
 18 19  3  0  0  0  0
 20 21  1  0  0  0  0
 20 52  1  0  0  0  0
 20 53  1  0  0  0  0
 21 23  1  0  0  0  0
 21 54  1  0  0  0  0
 21 55  1  0  0  0  0
 22 23  1  0  0  0  0
 22 24  2  0  0  0  0
 22 26  1  0  0  0  0
 23 56  1  0  0  0  0
 25 26  2  0  0  0  0
 25 28  1  0  0  0  0
 25 57  1  0  0  0  0
 26 35  1  0  0  0  0
 27 28  2  0  0  0  0
 27 32  1  0  0  0  0
 27 58  1  0  0  0  0
 28 29  1  0  0  0  0
 29 30  2  0  0  0  0
 29 59  1  0  0  0  0
 30 34  1  0  0  0  0
 30 31  1  0  0  0  0
 31 32  2  0  0  0  0
 31 33  1  0  0  0  0
 32 60  1  0  0  0  0
 33 61  1  0  0  0  0
 34 62  1  0  0  0  0
 35 36  3  0  0  0  0
M  END
$$$$
